/batch
/config,noeldb,1     ! force off writing results to database
*get,_wallstrt,active,,time,wall
! ANSYS input file written by Workbench version 2025 R2
! File used for geometry attach: D:\Ansys projects\New Model_files\dp0\SYS\DM\SYS.agdb
/title,New Model--Static Structural (A5)
! ****** Begin Custom Load Command Snippet ******
/COM, ACT Extensions:
/COM,     LSDYNA, 2025.2
/COM,     5f463412-bd3e-484b-87e7-cbc0a665e474, wbex
/COM,/COM,     ANSYSMotion, 2025.2
/COM,     20180725-3f81-49eb-9f31-41364844c769, wbex
/COM,
! ****** End   Custom Load Command Snippet ******
*DIM,_wb_ProjectScratch_dir,string,248
_wb_ProjectScratch_dir(1) = 'D:\Ansys projects\_ProjectScratch\Scr183A\'
*DIM,_wb_SolverFiles_dir,string,248
_wb_SolverFiles_dir(1) = 'D:\Ansys projects\New Model_files\dp0\SYS\MECH\'
*DIM,_wb_userfiles_dir,string,248
_wb_userfiles_dir(1) = 'D:\Ansys projects\New Model_files\user_files\'
/com,--- Data in consistent MKS units. See Solving Units in the help system for more information.
/units,MKS
/nopr
/wb,file,start              !  signify a WB generated input file
/prep7
! Turn off shape checking because checks already performed inside WB mesher.
! See help system for more information.
SHPP,OFF,,NOWARN
/nolist
etcon,set             ! allow ANSYS to choose best KEYOP's for 180x elements, resets any applicable keyopt to MAPDL defaults
/com,*********** Send User Defined Coordinate System(s) ***********
csys,0
/com,*********** Nodes for the whole assembly ***********
nblock,3,,8212
(1i9,3e20.9e3)
        1     1.200000000E-01     5.000000000E-02     0.000000000E+00
        2     1.000000000E-01     7.000000000E-02     0.000000000E+00
        3     1.500000000E-01     5.000000000E-02     0.000000000E+00
        4     1.000000000E-01     7.500000000E-02     0.000000000E+00
        5     1.199987866E-01     5.022030100E-02     0.000000000E+00
        6     1.199951032E-01     5.044254540E-02     0.000000000E+00
        7     1.199888674E-01     5.066721959E-02     0.000000000E+00
        8     1.199799814E-01     5.089461990E-02     0.000000000E+00
        9     1.199683386E-01     5.112492311E-02     0.000000000E+00
       10     1.199538268E-01     5.135823326E-02     0.000000000E+00
       11     1.199363290E-01     5.159461101E-02     0.000000000E+00
       12     1.199157252E-01     5.183409109E-02     0.000000000E+00
       13     1.198918915E-01     5.207669252E-02     0.000000000E+00
       14     1.198647010E-01     5.232242430E-02     0.000000000E+00
       15     1.198340232E-01     5.257128853E-02     0.000000000E+00
       16     1.197997242E-01     5.282328214E-02     0.000000000E+00
       17     1.197616666E-01     5.307839766E-02     0.000000000E+00
       18     1.197197095E-01     5.333662357E-02     0.000000000E+00
       19     1.196737082E-01     5.359794446E-02     0.000000000E+00
       20     1.196235145E-01     5.386234088E-02     0.000000000E+00
! ... 7447 like lines cut
/wb,elem,start            !  set before creation of elements
/com,*********** Elements for Body 1 'Surface Body' ***********
et,1,183
keyo,1,3,3
MAT,1 $ TYPE,1 $ REAL,1 $ SECNUM,1 $ ESYS,0
eblock,11,COMPACT,,2415
(11i9)
        1      661     2345      849      849     4092     4642      849     4091
        2     1302     1371     1370     1370     5790     5958     1370     5789
        3      833     2184      832      832     4593     4590      832     4588
        4      820     2137     1310     1310     4555     5811     1310     4554
        5      819      820      646      646     4551     4050      646     4049
        6     2028      745      953      953     4329     4328      953     4929
        7      557     2403     2405     2405     3791     7325     2405     3792
        8      593      727      726      726     3893     4275      726     3892
        9      933      729     2341     2341     4283     4285     2341     4877
       10     2417      523     2415     2415     3682     3681     2415     7341
       11      686      687      876      876     4153     4158      876     4154
       12     1408     1780     1485     1485     6072     6279     1485     6071
       13      770      772      634      634     4404     4010      634     4009
       14     1597     1616     1615     1615     6577     6613     1615     6576
       15     2191     1316     1356     1356     5826     5825     1356     5922
       16     1315     2191     1358     1358     5822     5928     1358     5821
       17     1361     2137     2266     2266     5936     7215     2266     5937
       18      619      656      563      563     3970     3812      563     3811
       19     1390     1283     2134     2134     5737     5738     2134     6018
       20      625      492     2086     2086     3586     3587     2086     3985
! ... 2396 like lines cut
secnum,1    ! reset the section ID to default
! Material Id = {76015553-1326-480A-B227-756CDB5A359F}
/wb,elem,end               !  done creating elements
toffst,273.15,      ! Temperature offset from absolute zero
/com,*********** Set Reference Temperature ***********
tref,22.
/wb,mat,start              !  starting to send materials
/com,*********** Send Materials ***********
MP,EX,1,210000000000,	! Pa
MP,NUXY,1,0.3,
MP,UVID,1,5724c3da-7f0b-4e71-8aec-73e45d12a297

/wb,mat,end                !  done sending materials
/com,*********** Send Sheet Properties ***********
r,1,1.e-003

!************************* Model Summary ********************
!Surface Body,	My Steel,	matid,	1
!************************* End Model Summary ********************
! get the diagonal of the bounding box. Needed later for other things
*get,_xmin,node,,mnloc,x
*get,_ymin,node,,mnloc,y
*get,_zmin,node,,mnloc,z
*get,_xmax,node,,mxloc,x
*get,_ymax,node,,mxloc,y
*get,_zmax,node,,mxloc,z
_ASMDIAG=(_xmax-_xmin)*(_xmax-_xmin)+(_ymax-_ymin)*(_ymax-_ymin)+(_zmax-_zmin)*(_zmax-_zmin)
_ASMDIAG=SQRT(_ASMDIAG)
/wb,contact,start          !  starting to send contact
/wb,contact,end            !  done creating contacts
CMBLOCK,MYNODE  ,NODE,        1
(8i10)
      2534
CMBLOCK,SECOND  ,NODE,        1
(8i10)
      2527
/golist
/wb,load,start             !  starting to send loads
/com,********* Frictionless Supports X *********
CMBLOCK,_FRICSUX,NODE,       34
(8i10)
         2         4       374      -402      2530      2534      3269      3271
      3273      3275      3277      3279      3281      3283      3285      3287
      3289      3291      3293      3295      3297      3299      3301      3303
      3305      3307      3309      3311      3313      3315      3317      3319
      3321      3323
cmsel,s,_FRICSUX
d,all,ux,0
nsel,all
/com,********* Frictionless Supports Y *********
CMBLOCK,_FRICSUY,NODE,      104
(8i10)
         1         3       104      -202      2528      2531      2732      2734
      2736      2738      2740      2742      2744      2746      2748      2750
      2752      2754      2756      2758      2760      2762      2764      2766
      2768      2770      2772      2774      2776      2778      2780      2782
      2784      2786      2788      2790      2792      2794      2796      2798
      2800      2802      2804      2806      2808      2810      2812      2814
      2816      2818      2820      2822      2824      2826      2828      2830
      2832      2834      2836      2838      2840      2842      2844      2846
      2848      2850      2852      2854      2856      2858      2860      2862
      2864      2866      2868      2870      2872      2874      2876      2878
      2880      2882      2884      2886      2888      2890      2892      2894
      2896      2898      2900      2902      2904      2906      2908      2910
      2912      2914      2916      2918      2920      2922      2924      2926
cmsel,s,_FRICSUY
d,all,uy,0
nsel,all
/com,********** Rotational Supports Z **********
CMBLOCK,_ROTSUZ ,NODE,      136
(8i10)
         1        -4       104      -202       374      -402      2528      2530
      2531      2534      2732      2734      2736      2738      2740      2742
      2744      2746      2748      2750      2752      2754      2756      2758
      2760      2762      2764      2766      2768      2770      2772      2774
      2776      2778      2780      2782      2784      2786      2788      2790
      2792      2794      2796      2798      2800      2802      2804      2806
      2808      2810      2812      2814      2816      2818      2820      2822
      2824      2826      2828      2830      2832      2834      2836      2838
      2840      2842      2844      2846      2848      2850      2852      2854
      2856      2858      2860      2862      2864      2866      2868      2870
      2872      2874      2876      2878      2880      2882      2884      2886
      2888      2890      2892      2894      2896      2898      2900      2902
      2904      2906      2908      2910      2912      2914      2916      2918
      2920      2922      2924      2926      3269      3271      3273      3275
      3277      3279      3281      3283      3285      3287      3289      3291
      3293      3295      3297      3299      3301      3303      3305      3307
      3309      3311      3313      3315      3317      3319      3321      3323
cmsel,s,_ROTSUZ
d,all,rotz,0
nsel,all
/com,*********** Define Force Using Surface Effect Elements ***********
local,12,0,0.,0.,0.,0.,0.,0.
csys,0
et,2,153
keyop,2,3,10        ! get plane stress option and thickness from underlying element
MAT,2 $ TYPE,2 $ REAL,2 $ SECNUM,2 $ ESYS,12
eblock,11,COMPACT,,22
(11i9)
     2416      203      224     2929
     2417      224      223     2969
     2418      223      222     2967
     2419      222      221     2965
     2420      221      220     2963
     2421      220      219     2961
     2422      219      218     2959
     2423      218      217     2957
     2424      217      216     2955
     2425      216      215     2953
     2426      215      214     2951
     2427      214      213     2949
     2428      213      212     2947
     2429      212      211     2945
     2430      211      210     2943
     2431      210      209     2941
     2432      209      208     2939
     2433      208      207     2937
     2434      207      206     2935
     2435      206      205     2933
     2436      205      204     2931
     2437      204        3     2532
-1
secnum,1    ! reset the section ID to default
esel,s,type,,2
keyop,2,2,1         ! Apply load in local coordinate system
keyop,2,7,1         ! Use original area so load is constant in large deformation
keyop,2,11,2        ! Use real and not project area
esel,all
/gst,on,on
fini
*get,_numnode,node,0,count
*get,_numelem,elem,0,count
*get, _MAXELEMNUM, elem, 0, NUM, MAX
*get, _MAXNODENUM, node, 0, NUM, MAX
*get, _MAXELEMTYPE, etyp, 0, NUM, MAX
*get, _MAXREALCONST, rcon, 0, NUM, MAX
/go
/wb,load,end               !  done creating loads
/com,--- Number of total nodes = %_numnode%
/com,--- Number of contact elements = 22
/com,--- Number of spring elements = 0
/com,--- Number of bearing elements = 0
/com,--- Number of solid elements = 2415
/com,--- Number of condensed parts = 0
/com,--- Number of total elements = %_numelem%
*get,_wallbsol,active,,time,wall
/com,****************************************************************************
/com,*************************    SOLUTION       ********************************
/com,****************************************************************************
/solu
antype,0                   ! static analysis
_thickRatio=  0     ! Ratio of thick parts in the model
eqsl,sparse,,,,,1
cntr,print,1               ! print out contact info and also make no initial contact an error
cncheck,dmp		!	Enable program controlled contact splitting for distributed memory parallel run
dmpoption,emat,no             ! Don't combine emat file for DANSYS
dmpoption,esav,no             ! Don't combine esav file for DANSYS
nldiag,cont,iter           ! print out contact info each equilibrium iteration
rescontrol,,none                 ! Do not keep any restart files
/com,****************************************************
/com,******************* SOLVE FOR LS 1 OF 1 ****************
esel,s,type,,2
nsle
sfe,all,1,pres,1,100000000.
sfe,all,2,pres,1,0.
nsel,all
esel,all
/nopr
/gopr
nsub,1,1,1
time,1.
outres,erase
outres,all,none
outres,nsol,all,
outres,rsol,all
outres,eangl,all
outres,etmp,all
outres,veng,all
outres,strs,all,
outres,epel,all,
outres,eppl,all,
outres,cont,all,
! *********** WB SOLVE COMMAND ***********
! check interactive state
*get,ANSINTER_,active,,int
*if,ANSINTER_,ne,0,then
/eof
*endif
solve
/com *************** Write FE CONNECTORS ********* 
CEWRITE,file,ce,,INTE
/com,****************************************************
/com,*************** FINISHED SOLVE FOR LS 1 *************
*get,_wallasol,active,,time,wall
/nopr
*get,_numnode,node,0,count
*get,_numelem,elem,0,count
*get, _MAXELEMNUM, elem, 0, NUM, MAX
*get, _MAXNODENUM, node, 0, NUM, MAX,,,INTERNAL
*get, _MAXELEMTYPE, etyp, 0, NUM, MAX
*get, _MAXREALCONST, rcon, 0, NUM, MAX
*get,_NSOLTHREADS,active,0,ntfs
*get,_NSOLPROCESSES,active,0,npfs
/gopr
/post1
xmlo,ENCODING,ISO-8859-1
xmlo,parm
/xml,parm,xml
fini
/gopr
*get,_walldone,active,,time,wall
_preptime=(_wallbsol-_wallstrt)*3600
_solvtime=(_wallasol-_wallbsol)*3600
_posttime=(_walldone-_wallasol)*3600
_totaltim=(_walldone-_wallstrt)*3600
*get,_dlbratio,active,0,solu,dlbr
*get,_combtime,active,0,solu,comb
*get,_ssmode,active,0,solu,ssmm
*get,_ndofs,active,0,solu,ndof
*get,_sol_end_time,active,0,set,time
*if,_sol_end_time,eq,1.000000,then
/fclean				!clean distributed files
*endif
/com,--- Total number of nodes = %_numnode%
/com,--- Total number of elements = %_numelem%
/com,--- Element load balance ratio = %_dlbratio%
/com,--- Time to combine distributed files = %_combtime%
/com,--- Sparse memory mode = %_ssmode%
/com,--- Number of DOF = %_ndofs%
/wb,file,end               ! done with WB generated input
